*SPEF "ieee 1481-1999"
*DESIGN "rgb_mixer"
*DATE "11:11:11 Fri 11 11, 1111"
*VENDOR "OpenRCX"
*PROGRAM "Parallel Extraction"
*VERSION "1.0"
*DESIGN_FLOW "NAME_SCOPE LOCAL" "PIN_CAP NONE"
*DIVIDER /
*DELIMITER :
*BUS_DELIMITER []
*T_UNIT 1 NS
*C_UNIT 1 PF
*R_UNIT 1 OHM
*L_UNIT 1 HENRY

*NAME_MAP
*1 clk
*2 enc0_a
*3 enc0_b
*4 enc1_a
*5 enc1_b
*6 enc2_a
*7 enc2_b
*8 net12
*9 net13
*10 net14
*11 net15
*12 pwm0_out
*13 pwm1_out
*14 pwm2_out
*15 reset
*16 sync
*19 _0000_
*20 _0001_
*21 _0002_
*22 _0003_
*23 _0004_
*24 _0005_
*25 _0006_
*26 _0007_
*27 _0008_
*28 _0009_
*29 _0010_
*30 _0011_
*31 _0012_
*32 _0013_
*33 _0014_
*34 _0015_
*35 _0016_
*36 _0017_
*37 _0018_
*38 _0019_
*39 _0020_
*40 _0021_
*41 _0022_
*42 _0023_
*43 _0024_
*44 _0025_
*45 _0026_
*46 _0027_
*47 _0028_
*48 _0029_
*49 _0030_
*50 _0031_
*51 _0032_
*52 _0033_
*53 _0034_
*54 _0035_
*55 _0036_
*56 _0037_
*57 _0038_
*58 _0039_
*59 _0040_
*60 _0041_
*61 _0042_
*62 _0043_
*63 _0044_
*64 _0045_
*65 _0046_
*66 _0047_
*67 _0048_
*68 _0049_
*69 _0050_
*70 _0051_
*71 _0052_
*72 _0053_
*73 _0054_
*74 _0055_
*75 _0056_
*76 _0057_
*77 _0058_
*78 _0059_
*79 _0060_
*80 _0061_
*81 _0062_
*82 _0063_
*83 _0064_
*84 _0065_
*85 _0066_
*86 _0067_
*87 _0068_
*88 _0069_
*89 _0070_
*90 _0071_
*91 _0072_
*92 _0073_
*93 _0074_
*94 _0075_
*95 _0076_
*96 _0077_
*97 _0078_
*98 _0079_
*99 _0080_
*100 _0081_
*101 _0082_
*102 _0083_
*103 _0084_
*104 _0085_
*105 _0086_
*106 _0087_
*107 _0088_
*108 _0089_
*109 _0090_
*110 _0091_
*111 _0092_
*112 _0093_
*113 _0094_
*114 _0095_
*115 _0096_
*116 _0097_
*117 _0098_
*118 _0099_
*119 _0100_
*120 _0101_
*121 _0102_
*122 _0103_
*123 _0104_
*124 _0105_
*125 _0106_
*126 _0107_
*127 _0108_
*128 _0109_
*129 _0110_
*130 _0111_
*131 _0112_
*132 _0113_
*133 _0114_
*134 _0115_
*135 _0116_
*136 _0117_
*137 _0118_
*138 _0119_
*139 _0120_
*140 _0121_
*141 _0122_
*142 _0123_
*143 _0124_
*144 _0125_
*145 _0126_
*146 _0127_
*147 _0128_
*148 _0129_
*149 _0130_
*150 _0131_
*151 _0132_
*152 _0133_
*153 _0134_
*154 _0135_
*155 _0136_
*156 _0137_
*157 _0138_
*158 _0139_
*159 _0140_
*160 _0141_
*161 _0142_
*162 _0143_
*163 _0144_
*164 _0145_
*165 _0146_
*166 _0147_
*167 _0148_
*168 _0149_
*169 _0150_
*170 _0151_
*171 _0152_
*172 _0153_
*173 _0154_
*174 _0155_
*175 _0156_
*176 _0157_
*177 _0158_
*178 _0159_
*179 _0160_
*180 _0161_
*181 _0162_
*182 _0163_
*183 _0164_
*184 _0165_
*185 _0166_
*186 _0167_
*187 _0168_
*188 _0169_
*189 _0170_
*190 _0171_
*191 _0172_
*192 _0173_
*193 _0174_
*194 _0175_
*195 _0176_
*196 _0177_
*197 _0178_
*198 _0179_
*199 _0180_
*200 _0181_
*201 _0182_
*202 _0183_
*203 _0184_
*204 _0185_
*205 _0186_
*206 _0187_
*207 _0188_
*208 _0189_
*209 _0190_
*210 _0191_
*211 _0192_
*212 _0193_
*213 _0194_
*214 _0195_
*215 _0196_
*216 _0197_
*217 _0198_
*218 _0199_
*219 _0200_
*220 _0201_
*221 _0202_
*222 _0203_
*223 _0204_
*224 _0205_
*225 _0206_
*226 _0207_
*227 _0208_
*228 _0209_
*229 _0210_
*230 _0211_
*231 _0212_
*232 _0213_
*233 _0214_
*234 _0215_
*235 _0216_
*236 _0217_
*237 _0218_
*238 _0219_
*239 _0220_
*240 _0221_
*241 _0222_
*242 _0223_
*243 _0224_
*244 _0225_
*245 _0226_
*246 _0227_
*247 _0228_
*248 _0229_
*249 _0230_
*250 _0231_
*251 _0232_
*252 _0233_
*253 _0234_
*254 _0235_
*255 _0236_
*256 _0237_
*257 _0238_
*258 _0239_
*259 _0240_
*260 _0241_
*261 _0242_
*262 _0243_
*263 _0244_
*264 _0245_
*265 _0246_
*266 _0247_
*267 _0248_
*268 _0249_
*269 _0250_
*270 _0251_
*271 _0252_
*272 _0253_
*273 _0254_
*274 _0255_
*275 _0256_
*276 _0257_
*277 _0258_
*278 _0259_
*279 _0260_
*280 _0261_
*281 _0262_
*282 _0263_
*283 _0264_
*284 _0265_
*285 _0266_
*286 _0267_
*287 _0268_
*288 _0269_
*289 _0270_
*290 _0271_
*291 _0272_
*292 _0273_
*293 _0274_
*294 _0275_
*295 _0276_
*296 _0277_
*297 _0278_
*298 _0279_
*299 _0280_
*300 _0281_
*301 _0282_
*302 _0283_
*303 _0284_
*304 _0285_
*305 _0286_
*306 _0287_
*307 _0288_
*308 _0289_
*309 _0290_
*310 _0291_
*311 _0292_
*312 _0293_
*313 _0294_
*314 _0295_
*315 _0296_
*316 _0297_
*317 _0298_
*318 _0299_
*319 _0300_
*320 _0301_
*321 _0302_
*322 _0303_
*323 _0304_
*324 _0305_
*325 _0306_
*326 _0307_
*327 _0308_
*328 _0309_
*329 _0310_
*330 _0311_
*331 _0312_
*332 _0313_
*333 _0314_
*334 _0315_
*335 _0316_
*336 _0317_
*337 _0318_
*338 _0319_
*339 _0320_
*340 _0321_
*341 _0322_
*342 _0323_
*343 _0324_
*344 _0325_
*345 _0326_
*346 _0327_
*347 _0328_
*348 _0329_
*349 _0330_
*350 _0331_
*351 _0332_
*352 _0333_
*353 _0334_
*354 _0335_
*355 _0336_
*356 _0337_
*357 _0338_
*358 _0339_
*359 _0340_
*360 _0341_
*361 _0342_
*362 _0343_
*363 _0344_
*364 _0345_
*365 _0346_
*366 _0347_
*367 _0348_
*368 _0349_
*369 _0350_
*370 _0351_
*371 _0352_
*372 _0353_
*373 _0354_
*374 _0355_
*375 _0356_
*376 _0357_
*377 _0358_
*378 _0359_
*379 _0360_
*380 _0361_
*381 _0362_
*382 _0363_
*383 _0364_
*384 _0365_
*385 _0366_
*386 _0367_
*387 _0368_
*388 _0369_
*389 _0370_
*390 _0371_
*391 _0372_
*392 _0373_
*393 _0374_
*394 _0375_
*395 _0376_
*396 _0377_
*397 _0378_
*398 _0379_
*399 _0380_
*400 _0381_
*401 _0382_
*402 _0383_
*403 _0384_
*404 _0385_
*405 _0386_
*406 _0387_
*407 _0388_
*408 _0389_
*409 _0390_
*410 _0391_
*411 _0392_
*412 _0393_
*413 _0394_
*414 _0395_
*415 _0396_
*416 _0397_
*417 _0398_
*418 _0399_
*419 _0400_
*420 _0401_
*421 _0402_
*422 _0403_
*423 _0404_
*424 _0405_
*425 _0406_
*426 _0407_
*427 _0408_
*428 _0409_
*429 _0410_
*430 _0411_
*431 _0412_
*432 _0413_
*433 _0414_
*434 _0415_
*435 _0416_
*436 _0417_
*437 _0418_
*438 _0419_
*439 _0420_
*440 _0421_
*441 _0422_
*442 _0423_
*443 _0424_
*444 _0425_
*445 _0426_
*446 _0427_
*447 _0428_
*448 _0429_
*449 _0430_
*450 _0431_
*451 _0432_
*452 _0433_
*453 _0434_
*454 _0435_
*455 _0436_
*456 _0437_
*457 _0438_
*458 _0439_
*459 _0440_
*460 _0441_
*461 _0442_
*462 _0443_
*463 _0444_
*464 _0445_
*465 _0446_
*466 _0447_
*467 _0448_
*468 _0449_
*469 _0450_
*470 _0451_
*471 _0452_
*472 _0453_
*473 _0454_
*474 _0455_
*475 _0456_
*476 _0457_
*477 _0458_
*478 clknet_0_clk
*479 clknet_1_0_0_clk
*480 clknet_1_1_0_clk
*481 clknet_2_0_0_clk
*482 clknet_2_1_0_clk
*483 clknet_2_2_0_clk
*484 clknet_2_3_0_clk
*485 clknet_3_0_0_clk
*486 clknet_3_1_0_clk
*487 clknet_3_2_0_clk
*488 clknet_3_3_0_clk
*489 clknet_3_4_0_clk
*490 clknet_3_5_0_clk
*491 clknet_3_6_0_clk
*492 clknet_3_7_0_clk
*493 debounce0_a\.button_hist\[0\]
*494 debounce0_a\.button_hist\[1\]
*495 debounce0_a\.button_hist\[2\]
*496 debounce0_a\.button_hist\[3\]
*497 debounce0_a\.button_hist\[4\]
*498 debounce0_a\.button_hist\[5\]
*499 debounce0_a\.button_hist\[6\]
*500 debounce0_a\.button_hist\[7\]
*501 debounce0_a\.debounced
*502 debounce0_b\.button_hist\[0\]
*503 debounce0_b\.button_hist\[1\]
*504 debounce0_b\.button_hist\[2\]
*505 debounce0_b\.button_hist\[3\]
*506 debounce0_b\.button_hist\[4\]
*507 debounce0_b\.button_hist\[5\]
*508 debounce0_b\.button_hist\[6\]
*509 debounce0_b\.button_hist\[7\]
*510 debounce0_b\.debounced
*511 debounce1_a\.button_hist\[0\]
*512 debounce1_a\.button_hist\[1\]
*513 debounce1_a\.button_hist\[2\]
*514 debounce1_a\.button_hist\[3\]
*515 debounce1_a\.button_hist\[4\]
*516 debounce1_a\.button_hist\[5\]
*517 debounce1_a\.button_hist\[6\]
*518 debounce1_a\.button_hist\[7\]
*519 debounce1_a\.debounced
*520 debounce1_b\.button_hist\[0\]
*521 debounce1_b\.button_hist\[1\]
*522 debounce1_b\.button_hist\[2\]
*523 debounce1_b\.button_hist\[3\]
*524 debounce1_b\.button_hist\[4\]
*525 debounce1_b\.button_hist\[5\]
*526 debounce1_b\.button_hist\[6\]
*527 debounce1_b\.button_hist\[7\]
*528 debounce1_b\.debounced
*529 debounce2_a\.button_hist\[0\]
*530 debounce2_a\.button_hist\[1\]
*531 debounce2_a\.button_hist\[2\]
*532 debounce2_a\.button_hist\[3\]
*533 debounce2_a\.button_hist\[4\]
*534 debounce2_a\.button_hist\[5\]
*535 debounce2_a\.button_hist\[6\]
*536 debounce2_a\.button_hist\[7\]
*537 debounce2_a\.debounced
*538 debounce2_b\.button_hist\[0\]
*539 debounce2_b\.button_hist\[1\]
*540 debounce2_b\.button_hist\[2\]
*541 debounce2_b\.button_hist\[3\]
*542 debounce2_b\.button_hist\[4\]
*543 debounce2_b\.button_hist\[5\]
*544 debounce2_b\.button_hist\[6\]
*545 debounce2_b\.button_hist\[7\]
*546 debounce2_b\.debounced
*547 encoder0\.old_a
*548 encoder0\.old_b
*549 encoder0\.value\[0\]
*550 encoder0\.value\[1\]
*551 encoder0\.value\[2\]
*552 encoder0\.value\[3\]
*553 encoder0\.value\[4\]
*554 encoder0\.value\[5\]
*555 encoder0\.value\[6\]
*556 encoder0\.value\[7\]
*557 encoder1\.old_a
*558 encoder1\.old_b
*559 encoder1\.value\[0\]
*560 encoder1\.value\[1\]
*561 encoder1\.value\[2\]
*562 encoder1\.value\[3\]
*563 encoder1\.value\[4\]
*564 encoder1\.value\[5\]
*565 encoder1\.value\[6\]
*566 encoder1\.value\[7\]
*567 encoder2\.old_a
*568 encoder2\.old_b
*569 encoder2\.value\[0\]
*570 encoder2\.value\[1\]
*571 encoder2\.value\[2\]
*572 encoder2\.value\[3\]
*573 encoder2\.value\[4\]
*574 encoder2\.value\[5\]
*575 encoder2\.value\[6\]
*576 encoder2\.value\[7\]
*577 net1
*578 net10
*579 net11
*580 net2
*581 net3
*582 net4
*583 net5
*584 net6
*585 net7
*586 net8
*587 net9
*588 pwm0\.count\[0\]
*589 pwm0\.count\[1\]
*590 pwm0\.count\[2\]
*591 pwm0\.count\[3\]
*592 pwm0\.count\[4\]
*593 pwm0\.count\[5\]
*594 pwm0\.count\[6\]
*595 pwm0\.count\[7\]
*596 pwm1\.count\[0\]
*597 pwm1\.count\[1\]
*598 pwm1\.count\[2\]
*599 pwm1\.count\[3\]
*600 pwm1\.count\[4\]
*601 pwm1\.count\[5\]
*602 pwm1\.count\[6\]
*603 pwm1\.count\[7\]
*604 pwm2\.count\[0\]
*605 pwm2\.count\[1\]
*606 pwm2\.count\[2\]
*607 pwm2\.count\[3\]
*608 pwm2\.count\[4\]
*609 pwm2\.count\[5\]
*610 pwm2\.count\[6\]
*611 pwm2\.count\[7\]
*612 FILLER_0_100
*613 FILLER_0_113
*614 FILLER_0_125
*615 FILLER_0_137
*616 FILLER_0_141
*617 FILLER_0_153
*618 FILLER_0_165
*619 FILLER_0_169
*620 FILLER_0_175
*621 FILLER_0_18
*622 FILLER_0_187
*623 FILLER_0_26
*624 FILLER_0_29
*625 FILLER_0_41
*626 FILLER_0_53
*627 FILLER_0_57
*628 FILLER_0_6
*629 FILLER_0_69
*630 FILLER_0_81
*631 FILLER_0_88
*632 FILLER_10_109
*633 FILLER_10_113
*634 FILLER_10_117
*635 FILLER_10_128
*636 FILLER_10_132
*637 FILLER_10_136
*638 FILLER_10_141
*639 FILLER_10_145
*640 FILLER_10_15
*641 FILLER_10_152
*642 FILLER_10_164
*643 FILLER_10_176
*644 FILLER_10_188
*645 FILLER_10_27
*646 FILLER_10_29
*647 FILLER_10_3
*648 FILLER_10_41
*649 FILLER_10_53
*650 FILLER_10_65
*651 FILLER_10_71
*652 FILLER_10_78
*653 FILLER_10_85
*654 FILLER_10_97
*655 FILLER_11_100
*656 FILLER_11_106
*657 FILLER_11_120
*658 FILLER_11_132
*659 FILLER_11_140
*660 FILLER_11_146
*661 FILLER_11_15
*662 FILLER_11_158
*663 FILLER_11_166
*664 FILLER_11_169
*665 FILLER_11_181
*666 FILLER_11_189
*667 FILLER_11_27
*668 FILLER_11_3
*669 FILLER_11_46
*670 FILLER_11_54
*671 FILLER_11_57
*672 FILLER_11_69
*673 FILLER_11_76
*674 FILLER_11_88
*675 FILLER_12_102
*676 FILLER_12_108
*677 FILLER_12_116
*678 FILLER_12_128
*679 FILLER_12_141
*680 FILLER_12_153
*681 FILLER_12_165
*682 FILLER_12_177
*683 FILLER_12_18
*684 FILLER_12_189
*685 FILLER_12_26
*686 FILLER_12_29
*687 FILLER_12_43
*688 FILLER_12_55
*689 FILLER_12_6
*690 FILLER_12_63
*691 FILLER_12_71
*692 FILLER_12_83
*693 FILLER_12_85
*694 FILLER_12_97
*695 FILLER_13_108
*696 FILLER_13_113
*697 FILLER_13_125
*698 FILLER_13_137
*699 FILLER_13_149
*700 FILLER_13_15
*701 FILLER_13_161
*702 FILLER_13_167
*703 FILLER_13_169
*704 FILLER_13_181
*705 FILLER_13_189
*706 FILLER_13_27
*707 FILLER_13_3
*708 FILLER_13_39
*709 FILLER_13_45
*710 FILLER_13_53
*711 FILLER_13_57
*712 FILLER_13_62
*713 FILLER_13_73
*714 FILLER_13_85
*715 FILLER_13_91
*716 FILLER_14_109
*717 FILLER_14_118
*718 FILLER_14_129
*719 FILLER_14_137
*720 FILLER_14_141
*721 FILLER_14_15
*722 FILLER_14_153
*723 FILLER_14_165
*724 FILLER_14_177
*725 FILLER_14_189
*726 FILLER_14_27
*727 FILLER_14_29
*728 FILLER_14_3
*729 FILLER_14_41
*730 FILLER_14_47
*731 FILLER_14_58
*732 FILLER_14_66
*733 FILLER_14_77
*734 FILLER_14_83
*735 FILLER_14_85
*736 FILLER_14_97
*737 FILLER_15_104
*738 FILLER_15_113
*739 FILLER_15_125
*740 FILLER_15_134
*741 FILLER_15_141
*742 FILLER_15_148
*743 FILLER_15_15
*744 FILLER_15_160
*745 FILLER_15_169
*746 FILLER_15_181
*747 FILLER_15_189
*748 FILLER_15_27
*749 FILLER_15_3
*750 FILLER_15_33
*751 FILLER_15_40
*752 FILLER_15_51
*753 FILLER_15_55
*754 FILLER_15_64
*755 FILLER_15_74
*756 FILLER_15_81
*757 FILLER_15_94
*758 FILLER_16_103
*759 FILLER_16_116
*760 FILLER_16_130
*761 FILLER_16_138
*762 FILLER_16_147
*763 FILLER_16_15
*764 FILLER_16_153
*765 FILLER_16_170
*766 FILLER_16_182
*767 FILLER_16_27
*768 FILLER_16_29
*769 FILLER_16_3
*770 FILLER_16_47
*771 FILLER_16_58
*772 FILLER_16_67
*773 FILLER_16_75
*774 FILLER_16_83
*775 FILLER_16_85
*776 FILLER_17_100
*777 FILLER_17_107
*778 FILLER_17_111
*779 FILLER_17_113
*780 FILLER_17_135
*781 FILLER_17_144
*782 FILLER_17_15
*783 FILLER_17_164
*784 FILLER_17_169
*785 FILLER_17_181
*786 FILLER_17_189
*787 FILLER_17_27
*788 FILLER_17_3
*789 FILLER_17_39
*790 FILLER_17_44
*791 FILLER_17_52
*792 FILLER_17_57
*793 FILLER_17_71
*794 FILLER_17_79
*795 FILLER_17_88
*796 FILLER_18_101
*797 FILLER_18_123
*798 FILLER_18_136
*799 FILLER_18_149
*800 FILLER_18_15
*801 FILLER_18_171
*802 FILLER_18_178
*803 FILLER_18_27
*804 FILLER_18_29
*805 FILLER_18_3
*806 FILLER_18_41
*807 FILLER_18_53
*808 FILLER_18_61
*809 FILLER_18_80
*810 FILLER_18_93
*811 FILLER_19_101
*812 FILLER_19_109
*813 FILLER_19_113
*814 FILLER_19_130
*815 FILLER_19_15
*816 FILLER_19_150
*817 FILLER_19_158
*818 FILLER_19_164
*819 FILLER_19_174
*820 FILLER_19_181
*821 FILLER_19_189
*822 FILLER_19_27
*823 FILLER_19_3
*824 FILLER_19_39
*825 FILLER_19_51
*826 FILLER_19_55
*827 FILLER_19_57
*828 FILLER_19_69
*829 FILLER_19_77
*830 FILLER_19_84
*831 FILLER_19_94
*832 FILLER_1_105
*833 FILLER_1_111
*834 FILLER_1_113
*835 FILLER_1_125
*836 FILLER_1_137
*837 FILLER_1_149
*838 FILLER_1_15
*839 FILLER_1_161
*840 FILLER_1_167
*841 FILLER_1_169
*842 FILLER_1_181
*843 FILLER_1_189
*844 FILLER_1_27
*845 FILLER_1_3
*846 FILLER_1_39
*847 FILLER_1_51
*848 FILLER_1_55
*849 FILLER_1_57
*850 FILLER_1_69
*851 FILLER_1_81
*852 FILLER_1_93
*853 FILLER_20_109
*854 FILLER_20_121
*855 FILLER_20_129
*856 FILLER_20_136
*857 FILLER_20_15
*858 FILLER_20_157
*859 FILLER_20_168
*860 FILLER_20_178
*861 FILLER_20_27
*862 FILLER_20_29
*863 FILLER_20_3
*864 FILLER_20_41
*865 FILLER_20_53
*866 FILLER_20_65
*867 FILLER_20_77
*868 FILLER_20_83
*869 FILLER_20_85
*870 FILLER_20_97
*871 FILLER_21_108
*872 FILLER_21_113
*873 FILLER_21_125
*874 FILLER_21_133
*875 FILLER_21_141
*876 FILLER_21_149
*877 FILLER_21_15
*878 FILLER_21_162
*879 FILLER_21_169
*880 FILLER_21_181
*881 FILLER_21_189
*882 FILLER_21_27
*883 FILLER_21_3
*884 FILLER_21_39
*885 FILLER_21_51
*886 FILLER_21_55
*887 FILLER_21_57
*888 FILLER_21_69
*889 FILLER_21_81
*890 FILLER_21_89
*891 FILLER_21_96
*892 FILLER_22_106
*893 FILLER_22_118
*894 FILLER_22_130
*895 FILLER_22_138
*896 FILLER_22_141
*897 FILLER_22_15
*898 FILLER_22_153
*899 FILLER_22_160
*900 FILLER_22_172
*901 FILLER_22_180
*902 FILLER_22_186
*903 FILLER_22_27
*904 FILLER_22_29
*905 FILLER_22_3
*906 FILLER_22_34
*907 FILLER_22_46
*908 FILLER_22_58
*909 FILLER_22_70
*910 FILLER_22_82
*911 FILLER_22_91
*912 FILLER_22_99
*913 FILLER_23_101
*914 FILLER_23_108
*915 FILLER_23_113
*916 FILLER_23_121
*917 FILLER_23_133
*918 FILLER_23_145
*919 FILLER_23_15
*920 FILLER_23_157
*921 FILLER_23_165
*922 FILLER_23_169
*923 FILLER_23_177
*924 FILLER_23_183
*925 FILLER_23_189
*926 FILLER_23_23
*927 FILLER_23_28
*928 FILLER_23_3
*929 FILLER_23_37
*930 FILLER_23_49
*931 FILLER_23_55
*932 FILLER_23_57
*933 FILLER_23_61
*934 FILLER_23_66
*935 FILLER_23_73
*936 FILLER_23_88
*937 FILLER_24_108
*938 FILLER_24_116
*939 FILLER_24_123
*940 FILLER_24_135
*941 FILLER_24_139
*942 FILLER_24_145
*943 FILLER_24_15
*944 FILLER_24_157
*945 FILLER_24_169
*946 FILLER_24_181
*947 FILLER_24_189
*948 FILLER_24_19
*949 FILLER_24_24
*950 FILLER_24_29
*951 FILLER_24_3
*952 FILLER_24_46
*953 FILLER_24_50
*954 FILLER_24_55
*955 FILLER_24_68
*956 FILLER_24_80
*957 FILLER_24_85
*958 FILLER_24_91
*959 FILLER_25_108
*960 FILLER_25_113
*961 FILLER_25_117
*962 FILLER_25_134
*963 FILLER_25_146
*964 FILLER_25_15
*965 FILLER_25_158
*966 FILLER_25_166
*967 FILLER_25_169
*968 FILLER_25_175
*969 FILLER_25_179
*970 FILLER_25_187
*971 FILLER_25_21
*972 FILLER_25_3
*973 FILLER_25_34
*974 FILLER_25_52
*975 FILLER_25_62
*976 FILLER_25_76
*977 FILLER_25_88
*978 FILLER_25_99
*979 FILLER_26_105
*980 FILLER_26_109
*981 FILLER_26_126
*982 FILLER_26_136
*983 FILLER_26_145
*984 FILLER_26_15
*985 FILLER_26_152
*986 FILLER_26_160
*987 FILLER_26_178
*988 FILLER_26_19
*989 FILLER_26_24
*990 FILLER_26_29
*991 FILLER_26_3
*992 FILLER_26_48
*993 FILLER_26_60
*994 FILLER_26_80
*995 FILLER_26_85
*996 FILLER_27_103
*997 FILLER_27_108
*998 FILLER_27_121
*999 FILLER_27_131
*1000 FILLER_27_140
*1001 FILLER_27_15
*1002 FILLER_27_153
*1003 FILLER_27_160
*1004 FILLER_27_185
*1005 FILLER_27_189
*1006 FILLER_27_27
*1007 FILLER_27_3
*1008 FILLER_27_38
*1009 FILLER_27_48
*1010 FILLER_27_73
*1011 FILLER_27_86
*1012 FILLER_27_92
*1013 FILLER_27_99
*1014 FILLER_28_103
*1015 FILLER_28_108
*1016 FILLER_28_120
*1017 FILLER_28_129
*1018 FILLER_28_136
*1019 FILLER_28_15
*1020 FILLER_28_157
*1021 FILLER_28_166
*1022 FILLER_28_175
*1023 FILLER_28_182
*1024 FILLER_28_27
*1025 FILLER_28_29
*1026 FILLER_28_3
*1027 FILLER_28_37
*1028 FILLER_28_45
*1029 FILLER_28_53
*1030 FILLER_28_61
*1031 FILLER_28_65
*1032 FILLER_28_71
*1033 FILLER_28_79
*1034 FILLER_28_83
*1035 FILLER_28_85
*1036 FILLER_28_93
*1037 FILLER_28_97
*1038 FILLER_29_106
*1039 FILLER_29_113
*1040 FILLER_29_126
*1041 FILLER_29_134
*1042 FILLER_29_151
*1043 FILLER_29_163
*1044 FILLER_29_167
*1045 FILLER_29_174
*1046 FILLER_29_18
*1047 FILLER_29_186
*1048 FILLER_29_30
*1049 FILLER_29_38
*1050 FILLER_29_43
*1051 FILLER_29_51
*1052 FILLER_29_55
*1053 FILLER_29_57
*1054 FILLER_29_6
*1055 FILLER_29_62
*1056 FILLER_29_70
*1057 FILLER_29_82
*1058 FILLER_29_94
*1059 FILLER_2_105
*1060 FILLER_2_111
*1061 FILLER_2_123
*1062 FILLER_2_135
*1063 FILLER_2_139
*1064 FILLER_2_141
*1065 FILLER_2_15
*1066 FILLER_2_153
*1067 FILLER_2_165
*1068 FILLER_2_177
*1069 FILLER_2_189
*1070 FILLER_2_27
*1071 FILLER_2_29
*1072 FILLER_2_3
*1073 FILLER_2_41
*1074 FILLER_2_53
*1075 FILLER_2_70
*1076 FILLER_2_82
*1077 FILLER_2_90
*1078 FILLER_2_97
*1079 FILLER_30_109
*1080 FILLER_30_124
*1081 FILLER_30_130
*1082 FILLER_30_136
*1083 FILLER_30_141
*1084 FILLER_30_15
*1085 FILLER_30_160
*1086 FILLER_30_180
*1087 FILLER_30_188
*1088 FILLER_30_27
*1089 FILLER_30_29
*1090 FILLER_30_3
*1091 FILLER_30_41
*1092 FILLER_30_47
*1093 FILLER_30_51
*1094 FILLER_30_63
*1095 FILLER_30_75
*1096 FILLER_30_83
*1097 FILLER_30_85
*1098 FILLER_30_97
*1099 FILLER_31_105
*1100 FILLER_31_111
*1101 FILLER_31_113
*1102 FILLER_31_125
*1103 FILLER_31_131
*1104 FILLER_31_149
*1105 FILLER_31_15
*1106 FILLER_31_163
*1107 FILLER_31_167
*1108 FILLER_31_172
*1109 FILLER_31_184
*1110 FILLER_31_27
*1111 FILLER_31_3
*1112 FILLER_31_39
*1113 FILLER_31_51
*1114 FILLER_31_55
*1115 FILLER_31_57
*1116 FILLER_31_69
*1117 FILLER_31_81
*1118 FILLER_31_89
*1119 FILLER_31_93
*1120 FILLER_32_101
*1121 FILLER_32_108
*1122 FILLER_32_120
*1123 FILLER_32_132
*1124 FILLER_32_141
*1125 FILLER_32_149
*1126 FILLER_32_15
*1127 FILLER_32_162
*1128 FILLER_32_174
*1129 FILLER_32_186
*1130 FILLER_32_27
*1131 FILLER_32_29
*1132 FILLER_32_3
*1133 FILLER_32_41
*1134 FILLER_32_53
*1135 FILLER_32_65
*1136 FILLER_32_73
*1137 FILLER_32_78
*1138 FILLER_32_85
*1139 FILLER_32_89
*1140 FILLER_32_93
*1141 FILLER_33_100
*1142 FILLER_33_108
*1143 FILLER_33_113
*1144 FILLER_33_123
*1145 FILLER_33_131
*1146 FILLER_33_143
*1147 FILLER_33_15
*1148 FILLER_33_155
*1149 FILLER_33_167
*1150 FILLER_33_169
*1151 FILLER_33_181
*1152 FILLER_33_189
*1153 FILLER_33_27
*1154 FILLER_33_3
*1155 FILLER_33_31
*1156 FILLER_33_43
*1157 FILLER_33_52
*1158 FILLER_33_61
*1159 FILLER_33_69
*1160 FILLER_33_74
*1161 FILLER_33_82
*1162 FILLER_33_87
*1163 FILLER_34_107
*1164 FILLER_34_127
*1165 FILLER_34_134
*1166 FILLER_34_141
*1167 FILLER_34_15
*1168 FILLER_34_153
*1169 FILLER_34_165
*1170 FILLER_34_177
*1171 FILLER_34_181
*1172 FILLER_34_185
*1173 FILLER_34_189
*1174 FILLER_34_27
*1175 FILLER_34_29
*1176 FILLER_34_3
*1177 FILLER_34_46
*1178 FILLER_34_54
*1179 FILLER_34_65
*1180 FILLER_34_77
*1181 FILLER_34_83
*1182 FILLER_34_85
*1183 FILLER_35_102
*1184 FILLER_35_110
*1185 FILLER_35_117
*1186 FILLER_35_129
*1187 FILLER_35_135
*1188 FILLER_35_147
*1189 FILLER_35_15
*1190 FILLER_35_159
*1191 FILLER_35_167
*1192 FILLER_35_169
*1193 FILLER_35_175
*1194 FILLER_35_182
*1195 FILLER_35_24
*1196 FILLER_35_28
*1197 FILLER_35_3
*1198 FILLER_35_37
*1199 FILLER_35_52
*1200 FILLER_35_73
*1201 FILLER_35_93
*1202 FILLER_36_108
*1203 FILLER_36_11
*1204 FILLER_36_115
*1205 FILLER_36_127
*1206 FILLER_36_136
*1207 FILLER_36_141
*1208 FILLER_36_148
*1209 FILLER_36_160
*1210 FILLER_36_166
*1211 FILLER_36_17
*1212 FILLER_36_175
*1213 FILLER_36_184
*1214 FILLER_36_24
*1215 FILLER_36_29
*1216 FILLER_36_3
*1217 FILLER_36_35
*1218 FILLER_36_41
*1219 FILLER_36_46
*1220 FILLER_36_60
*1221 FILLER_36_80
*1222 FILLER_36_88
*1223 FILLER_37_103
*1224 FILLER_37_111
*1225 FILLER_37_116
*1226 FILLER_37_120
*1227 FILLER_37_137
*1228 FILLER_37_147
*1229 FILLER_37_15
*1230 FILLER_37_161
*1231 FILLER_37_167
*1232 FILLER_37_185
*1233 FILLER_37_189
*1234 FILLER_37_19
*1235 FILLER_37_24
*1236 FILLER_37_3
*1237 FILLER_37_32
*1238 FILLER_37_52
*1239 FILLER_37_57
*1240 FILLER_37_73
*1241 FILLER_37_95
*1242 FILLER_38_102
*1243 FILLER_38_114
*1244 FILLER_38_126
*1245 FILLER_38_136
*1246 FILLER_38_147
*1247 FILLER_38_15
*1248 FILLER_38_156
*1249 FILLER_38_160
*1250 FILLER_38_166
*1251 FILLER_38_186
*1252 FILLER_38_24
*1253 FILLER_38_3
*1254 FILLER_38_37
*1255 FILLER_38_43
*1256 FILLER_38_50
*1257 FILLER_38_58
*1258 FILLER_38_62
*1259 FILLER_38_69
*1260 FILLER_38_75
*1261 FILLER_38_80
*1262 FILLER_38_90
*1263 FILLER_39_110
*1264 FILLER_39_113
*1265 FILLER_39_125
*1266 FILLER_39_129
*1267 FILLER_39_133
*1268 FILLER_39_15
*1269 FILLER_39_153
*1270 FILLER_39_159
*1271 FILLER_39_164
*1272 FILLER_39_169
*1273 FILLER_39_186
*1274 FILLER_39_19
*1275 FILLER_39_26
*1276 FILLER_39_3
*1277 FILLER_39_34
*1278 FILLER_39_46
*1279 FILLER_39_54
*1280 FILLER_39_57
*1281 FILLER_39_67
*1282 FILLER_39_74
*1283 FILLER_39_86
*1284 FILLER_39_98
*1285 FILLER_3_103
*1286 FILLER_3_111
*1287 FILLER_3_113
*1288 FILLER_3_131
*1289 FILLER_3_15
*1290 FILLER_3_153
*1291 FILLER_3_160
*1292 FILLER_3_169
*1293 FILLER_3_181
*1294 FILLER_3_189
*1295 FILLER_3_27
*1296 FILLER_3_3
*1297 FILLER_3_39
*1298 FILLER_3_51
*1299 FILLER_3_55
*1300 FILLER_3_60
*1301 FILLER_3_66
*1302 FILLER_3_83
*1303 FILLER_40_103
*1304 FILLER_40_11
*1305 FILLER_40_124
*1306 FILLER_40_136
*1307 FILLER_40_141
*1308 FILLER_40_149
*1309 FILLER_40_169
*1310 FILLER_40_173
*1311 FILLER_40_181
*1312 FILLER_40_189
*1313 FILLER_40_21
*1314 FILLER_40_27
*1315 FILLER_40_3
*1316 FILLER_40_33
*1317 FILLER_40_41
*1318 FILLER_40_46
*1319 FILLER_40_58
*1320 FILLER_40_70
*1321 FILLER_40_82
*1322 FILLER_40_85
*1323 FILLER_40_97
*1324 FILLER_41_105
*1325 FILLER_41_111
*1326 FILLER_41_129
*1327 FILLER_41_137
*1328 FILLER_41_144
*1329 FILLER_41_15
*1330 FILLER_41_164
*1331 FILLER_41_176
*1332 FILLER_41_186
*1333 FILLER_41_27
*1334 FILLER_41_3
*1335 FILLER_41_39
*1336 FILLER_41_52
*1337 FILLER_41_57
*1338 FILLER_41_69
*1339 FILLER_41_81
*1340 FILLER_41_93
*1341 FILLER_42_105
*1342 FILLER_42_110
*1343 FILLER_42_119
*1344 FILLER_42_128
*1345 FILLER_42_135
*1346 FILLER_42_139
*1347 FILLER_42_141
*1348 FILLER_42_148
*1349 FILLER_42_15
*1350 FILLER_42_162
*1351 FILLER_42_171
*1352 FILLER_42_183
*1353 FILLER_42_189
*1354 FILLER_42_27
*1355 FILLER_42_3
*1356 FILLER_42_37
*1357 FILLER_42_49
*1358 FILLER_42_58
*1359 FILLER_42_70
*1360 FILLER_42_82
*1361 FILLER_42_85
*1362 FILLER_42_91
*1363 FILLER_42_97
*1364 FILLER_43_105
*1365 FILLER_43_111
*1366 FILLER_43_129
*1367 FILLER_43_141
*1368 FILLER_43_15
*1369 FILLER_43_153
*1370 FILLER_43_159
*1371 FILLER_43_167
*1372 FILLER_43_174
*1373 FILLER_43_186
*1374 FILLER_43_3
*1375 FILLER_43_43
*1376 FILLER_43_55
*1377 FILLER_43_61
*1378 FILLER_43_69
*1379 FILLER_43_76
*1380 FILLER_43_88
*1381 FILLER_43_98
*1382 FILLER_44_111
*1383 FILLER_44_124
*1384 FILLER_44_136
*1385 FILLER_44_141
*1386 FILLER_44_15
*1387 FILLER_44_153
*1388 FILLER_44_165
*1389 FILLER_44_177
*1390 FILLER_44_189
*1391 FILLER_44_27
*1392 FILLER_44_29
*1393 FILLER_44_3
*1394 FILLER_44_35
*1395 FILLER_44_44
*1396 FILLER_44_64
*1397 FILLER_44_73
*1398 FILLER_44_80
*1399 FILLER_44_85
*1400 FILLER_44_91
*1401 FILLER_45_104
*1402 FILLER_45_116
*1403 FILLER_45_126
*1404 FILLER_45_138
*1405 FILLER_45_150
*1406 FILLER_45_162
*1407 FILLER_45_174
*1408 FILLER_45_186
*1409 FILLER_45_19
*1410 FILLER_45_31
*1411 FILLER_45_39
*1412 FILLER_45_45
*1413 FILLER_45_53
*1414 FILLER_45_57
*1415 FILLER_45_65
*1416 FILLER_45_7
*1417 FILLER_45_83
*1418 FILLER_46_106
*1419 FILLER_46_110
*1420 FILLER_46_127
*1421 FILLER_46_136
*1422 FILLER_46_144
*1423 FILLER_46_15
*1424 FILLER_46_156
*1425 FILLER_46_168
*1426 FILLER_46_180
*1427 FILLER_46_188
*1428 FILLER_46_27
*1429 FILLER_46_29
*1430 FILLER_46_3
*1431 FILLER_46_41
*1432 FILLER_46_47
*1433 FILLER_46_53
*1434 FILLER_46_61
*1435 FILLER_46_79
*1436 FILLER_46_83
*1437 FILLER_46_85
*1438 FILLER_46_89
*1439 FILLER_46_98
*1440 FILLER_47_101
*1441 FILLER_47_109
*1442 FILLER_47_113
*1443 FILLER_47_127
*1444 FILLER_47_147
*1445 FILLER_47_15
*1446 FILLER_47_159
*1447 FILLER_47_167
*1448 FILLER_47_172
*1449 FILLER_47_184
*1450 FILLER_47_27
*1451 FILLER_47_3
*1452 FILLER_47_37
*1453 FILLER_47_49
*1454 FILLER_47_55
*1455 FILLER_47_57
*1456 FILLER_47_63
*1457 FILLER_47_69
*1458 FILLER_47_77
*1459 FILLER_47_89
*1460 FILLER_48_101
*1461 FILLER_48_113
*1462 FILLER_48_126
*1463 FILLER_48_135
*1464 FILLER_48_139
*1465 FILLER_48_148
*1466 FILLER_48_15
*1467 FILLER_48_156
*1468 FILLER_48_175
*1469 FILLER_48_187
*1470 FILLER_48_27
*1471 FILLER_48_29
*1472 FILLER_48_3
*1473 FILLER_48_46
*1474 FILLER_48_57
*1475 FILLER_48_65
*1476 FILLER_48_70
*1477 FILLER_48_82
*1478 FILLER_48_85
*1479 FILLER_48_97
*1480 FILLER_49_105
*1481 FILLER_49_11
*1482 FILLER_49_111
*1483 FILLER_49_113
*1484 FILLER_49_125
*1485 FILLER_49_137
*1486 FILLER_49_154
*1487 FILLER_49_161
*1488 FILLER_49_167
*1489 FILLER_49_174
*1490 FILLER_49_186
*1491 FILLER_49_20
*1492 FILLER_49_29
*1493 FILLER_49_3
*1494 FILLER_49_37
*1495 FILLER_49_46
*1496 FILLER_49_54
*1497 FILLER_49_57
*1498 FILLER_49_69
*1499 FILLER_49_81
*1500 FILLER_49_93
*1501 FILLER_4_108
*1502 FILLER_4_128
*1503 FILLER_4_135
*1504 FILLER_4_139
*1505 FILLER_4_144
*1506 FILLER_4_15
*1507 FILLER_4_151
*1508 FILLER_4_158
*1509 FILLER_4_170
*1510 FILLER_4_182
*1511 FILLER_4_27
*1512 FILLER_4_29
*1513 FILLER_4_3
*1514 FILLER_4_41
*1515 FILLER_4_51
*1516 FILLER_4_63
*1517 FILLER_4_72
*1518 FILLER_4_80
*1519 FILLER_4_85
*1520 FILLER_4_91
*1521 FILLER_50_109
*1522 FILLER_50_127
*1523 FILLER_50_136
*1524 FILLER_50_147
*1525 FILLER_50_15
*1526 FILLER_50_156
*1527 FILLER_50_180
*1528 FILLER_50_188
*1529 FILLER_50_24
*1530 FILLER_50_29
*1531 FILLER_50_3
*1532 FILLER_50_41
*1533 FILLER_50_56
*1534 FILLER_50_68
*1535 FILLER_50_80
*1536 FILLER_50_85
*1537 FILLER_50_89
*1538 FILLER_50_97
*1539 FILLER_51_105
*1540 FILLER_51_111
*1541 FILLER_51_113
*1542 FILLER_51_125
*1543 FILLER_51_137
*1544 FILLER_51_15
*1545 FILLER_51_155
*1546 FILLER_51_162
*1547 FILLER_51_174
*1548 FILLER_51_181
*1549 FILLER_51_189
*1550 FILLER_51_27
*1551 FILLER_51_3
*1552 FILLER_51_39
*1553 FILLER_51_51
*1554 FILLER_51_55
*1555 FILLER_51_57
*1556 FILLER_51_69
*1557 FILLER_51_88
*1558 FILLER_51_94
*1559 FILLER_51_98
*1560 FILLER_52_106
*1561 FILLER_52_118
*1562 FILLER_52_130
*1563 FILLER_52_136
*1564 FILLER_52_15
*1565 FILLER_52_157
*1566 FILLER_52_177
*1567 FILLER_52_189
*1568 FILLER_52_24
*1569 FILLER_52_3
*1570 FILLER_52_33
*1571 FILLER_52_45
*1572 FILLER_52_57
*1573 FILLER_52_74
*1574 FILLER_52_82
*1575 FILLER_52_88
*1576 FILLER_52_92
*1577 FILLER_52_98
*1578 FILLER_53_101
*1579 FILLER_53_109
*1580 FILLER_53_11
*1581 FILLER_53_117
*1582 FILLER_53_129
*1583 FILLER_53_141
*1584 FILLER_53_147
*1585 FILLER_53_159
*1586 FILLER_53_167
*1587 FILLER_53_172
*1588 FILLER_53_184
*1589 FILLER_53_20
*1590 FILLER_53_28
*1591 FILLER_53_3
*1592 FILLER_53_36
*1593 FILLER_53_42
*1594 FILLER_53_46
*1595 FILLER_53_54
*1596 FILLER_53_57
*1597 FILLER_53_61
*1598 FILLER_53_68
*1599 FILLER_53_76
*1600 FILLER_53_86
*1601 FILLER_54_100
*1602 FILLER_54_110
*1603 FILLER_54_114
*1604 FILLER_54_120
*1605 FILLER_54_127
*1606 FILLER_54_139
*1607 FILLER_54_141
*1608 FILLER_54_15
*1609 FILLER_54_153
*1610 FILLER_54_165
*1611 FILLER_54_177
*1612 FILLER_54_189
*1613 FILLER_54_27
*1614 FILLER_54_3
*1615 FILLER_54_36
*1616 FILLER_54_43
*1617 FILLER_54_56
*1618 FILLER_54_68
*1619 FILLER_54_77
*1620 FILLER_54_83
*1621 FILLER_54_89
*1622 FILLER_55_100
*1623 FILLER_55_108
*1624 FILLER_55_113
*1625 FILLER_55_122
*1626 FILLER_55_132
*1627 FILLER_55_140
*1628 FILLER_55_15
*1629 FILLER_55_152
*1630 FILLER_55_164
*1631 FILLER_55_169
*1632 FILLER_55_181
*1633 FILLER_55_189
*1634 FILLER_55_3
*1635 FILLER_55_43
*1636 FILLER_55_52
*1637 FILLER_55_57
*1638 FILLER_55_63
*1639 FILLER_55_71
*1640 FILLER_55_77
*1641 FILLER_55_87
*1642 FILLER_55_95
*1643 FILLER_56_101
*1644 FILLER_56_109
*1645 FILLER_56_129
*1646 FILLER_56_137
*1647 FILLER_56_146
*1648 FILLER_56_15
*1649 FILLER_56_162
*1650 FILLER_56_174
*1651 FILLER_56_186
*1652 FILLER_56_27
*1653 FILLER_56_3
*1654 FILLER_56_35
*1655 FILLER_56_49
*1656 FILLER_56_69
*1657 FILLER_56_80
*1658 FILLER_56_90
*1659 FILLER_56_96
*1660 FILLER_57_100
*1661 FILLER_57_108
*1662 FILLER_57_113
*1663 FILLER_57_122
*1664 FILLER_57_132
*1665 FILLER_57_140
*1666 FILLER_57_15
*1667 FILLER_57_152
*1668 FILLER_57_164
*1669 FILLER_57_169
*1670 FILLER_57_181
*1671 FILLER_57_189
*1672 FILLER_57_27
*1673 FILLER_57_3
*1674 FILLER_57_35
*1675 FILLER_57_52
*1676 FILLER_57_63
*1677 FILLER_57_67
*1678 FILLER_57_72
*1679 FILLER_57_80
*1680 FILLER_57_88
*1681 FILLER_58_109
*1682 FILLER_58_117
*1683 FILLER_58_134
*1684 FILLER_58_144
*1685 FILLER_58_15
*1686 FILLER_58_156
*1687 FILLER_58_163
*1688 FILLER_58_175
*1689 FILLER_58_187
*1690 FILLER_58_27
*1691 FILLER_58_29
*1692 FILLER_58_3
*1693 FILLER_58_41
*1694 FILLER_58_49